44
-1341.29193 frame 0   xyz file generated by terachem
   H      10.0239100000   23.1667300000   28.4668500000
   C      10.2639600000   22.2651400000   27.9172600000
   H      10.0801600000   21.5113800000   30.5098700000
   H      10.2969100000   22.8626300000   25.8059800000
   C      10.4086600000   22.1146300000   26.5796900000
   H      10.7729000000   19.9413200000   32.5756200000
   C      10.3309600000   20.6722800000   29.8655100000
   C      10.4819300000   20.9614500000   28.5181100000
   C      10.1837900000   19.2424500000   31.9754100000
   H       9.1300800000   19.4516400000   32.1970100000
   C      10.4467200000   19.4233400000   30.4917300000
   C      10.7112200000   20.7147100000   26.3380400000
   N      10.7932300000   20.0591600000   27.5384900000
   C      10.5432700000   17.7735100000   32.2234300000
   H      11.4462700000   17.6725300000   32.8378800000
   H      10.7333500000   20.8058100000   24.2357100000
   N      10.7513700000   18.2716700000   29.9008900000
   C      10.8414600000   20.1380400000   25.0859500000
   H       9.7521700000   17.2198400000   32.7390700000
   C      10.7823600000   17.2425700000   30.8278800000
  Mg      11.2403100000   18.0685100000   27.7912100000
   C      11.0426300000   18.7827000000   24.7872900000
   C      11.0001900000   15.9420100000   30.4825600000
   N      11.1189700000   17.7964100000   25.6766800000
   C      11.1565800000   18.2692000000   23.3677800000
   H      10.2004500000   18.4106000000   22.8607100000
   H      11.9037200000   18.8242400000   22.7948100000
   C      11.0669400000   14.7153000000   31.3706300000
   N      11.1903000000   16.0740400000   27.9683500000
   C      11.1778000000   15.4680900000   29.1594100000
   H      11.8981900000   14.7329900000   32.0857900000
   H      10.1506700000   14.5477600000   31.9503400000
   C      11.3272700000   16.5838000000   25.0503900000
   C      11.5051500000   16.7918100000   23.5602300000
   C      11.3467300000   15.0725700000   27.0420900000
   C      11.3328600000   14.0747000000   29.0523400000
   C      11.2838600000   13.5079100000   30.4057100000
   C      11.4109300000   15.3611400000   25.6533200000
   H      10.8666600000   16.1180500000   22.9839600000
   H      12.5448200000   16.5816700000   23.2804400000
   C      11.4402100000   13.8090200000   27.6879700000
   O      11.3813300000   12.3630800000   30.7819600000
   H      11.5551600000   14.5093900000   24.9928500000
   H      11.5446300000   12.8501200000   27.1973100000
