44
-1341.28938 frame 0   xyz file generated by terachem
   H       1.6003500000   17.9507800000   32.1895000000
   H       1.0648500000   20.2797200000   32.0482400000
   H      -0.1358500000   17.6742200000   32.2926600000
   C       0.6440300000   18.1377200000   31.6828700000
   C       0.4241900000   19.6335500000   31.4414400000
   H      -0.6136200000   19.9314700000   31.6370000000
   H       1.5585700000   15.1706000000   31.6207500000
   H      -0.1301100000   14.8004000000   31.2976900000
   C       0.8186800000   15.0616200000   30.8191800000
   C       0.6856900000   17.5808500000   30.2793100000
   C       0.7020800000   19.7881600000   29.9608900000
   H       0.6387500000   21.9088900000   29.9998500000
   C       0.7128400000   16.2730400000   29.9230000000
   C       0.7549500000   21.0492200000   29.3458900000
   O       1.5354000000   12.7902900000   30.2862800000
   N       0.8072700000   18.6125200000   29.3544600000
   C       1.2312500000   13.8940800000   29.8805800000
   C       0.8586500000   15.7799400000   28.5951400000
   C       0.8586800000   21.3098200000   27.9896100000
   H       0.6443300000   23.5597400000   27.9419900000
   C       1.2112300000   14.4316800000   28.5210900000
   C       0.7644300000   22.6365300000   27.3883500000
  Mg       1.2281300000   18.3794900000   27.2512000000
   N       1.0133700000   20.3818200000   27.0079300000
   N       0.8391300000   16.3730000000   27.3754400000
   C       1.4850100000   14.1695100000   27.1690400000
   C       0.8301300000   22.4669400000   26.0501800000
   C       1.2889900000   15.3850800000   26.4938500000
   C       0.9823900000   21.0371300000   25.8078300000
   H       1.8076800000   13.2423000000   26.7155000000
   H       0.7765200000   23.2224000000   25.2758300000
   N       1.3057800000   18.1100300000   25.1418000000
   C       1.5283400000   15.6730400000   25.1140300000
   C       1.0740400000   20.4596300000   24.5610100000
   C       1.4799200000   16.8886600000   24.5038200000
   C       1.2397000000   19.0918700000   24.2602600000
   H       1.7300800000   14.8133800000   24.4799500000
   H       1.0313900000   21.1336700000   23.7098500000
   C       1.5627300000   17.0916300000   23.0068600000
   C       1.3606700000   18.5985000000   22.8387600000
   H       0.7955300000   16.5076000000   22.4954300000
   H       2.2033100000   19.0891900000   22.3408400000
   H       2.5335400000   16.7653000000   22.6324100000
   H       0.4537400000   18.8488100000   22.2766300000
